
Spectre (R) Circuit Simulator
Version 18.1.0.464.isr11 64bit -- 21 Sep 2019
Copyright (C) 1989-2019 Cadence Design Systems, Inc. All rights reserved worldwide. Cadence and Spectre are registered trademarks of Cadence Design Systems, Inc. All others are the property of their respective holders.

Includes RSA BSAFE(R) Cryptographic or Security Protocol Software from RSA Security, Inc.

User: sai9   Host: mo.ece.pdx.edu   HostID: DA0A14CF   PID: 18960
Memory  available: 1.4841 GB  physical: 89.5774 GB
Linux   : CentOS Linux release 7.9.2009 (Core)
CPU Type: Intel Xeon E312xx (Sandy Bridge, IBRS update)
All processors running at 2600.0 MHz
        Socket: Processors
        0:       0
        1:       1
        2:       2
        3:       3
        4:       4
        5:       5
        6:       6
        7:       7
        8:       8
        9:       9
        10:     10
        11:     11
        12:     12
        13:     13
        14:     14
        15:     15
        16:     16
        17:     17
        18:     18
        19:     19
        20:     20
        21:     21
        22:     22
        23:     23
        24:     24
        25:     25
        26:     26
        27:     27
        28:     28
        29:     29
        30:     30
        31:     31
        
System load averages (1min, 5min, 15min) : 11.6 %, 13.4 %, 11.5 %


Simulating `input.scs' on mo.ece.pdx.edu at 10:33:07 PM, Fri Oct 28, 2022 (process id: 18960).
Current working directory: /u/sai9/simulation/res_inverter_1_1_man_tb/spectre/schematic/netlist
Command line:
    /pkgs/cadence/2019-03/SPECTRE181/tools.lnx86/bin/spectre -64  \
        input.scs +escchars +log ../psf/spectre.out +inter=mpsc  \
        +mpssession=spectre1_31633_2 -format psfxl -raw ../psf  \
        +lqtimeout 900 -maxw 5 -maxn 5 -env ade
spectre pid = 18960

Loading /pkgs/cadence/2019-03/SPECTRE181/tools.lnx86/cmi/lib/64bit/5.0/libinfineon_sh.so ...
Loading /pkgs/cadence/2019-03/SPECTRE181/tools.lnx86/cmi/lib/64bit/5.0/libphilips_o_sh.so ...
Loading /pkgs/cadence/2019-03/SPECTRE181/tools.lnx86/cmi/lib/64bit/5.0/libphilips_sh.so ...
Loading /pkgs/cadence/2019-03/SPECTRE181/tools.lnx86/cmi/lib/64bit/5.0/libsparam_sh.so ...
Loading /pkgs/cadence/2019-03/SPECTRE181/tools.lnx86/cmi/lib/64bit/5.0/libstmodels_sh.so ...
Reading file:  /u/sai9/simulation/res_inverter_1_1_man_tb/spectre/schematic/netlist/input.scs
Reading file:  /pkgs/cadence/2019-03/SPECTRE181/tools.lnx86/spectre/etc/configs/spectre.cfg
Reading file:  /u/sai9/FreePDK45/osu_soc/lib/files/gpdk45nm.m
Time for NDB Parsing: CPU = 95.114 ms, elapsed = 261.051 ms.
Time accumulated: CPU = 153.385 ms, elapsed = 261.059 ms.
Peak resident memory used = 56 Mbytes.


Warning from spectre in `group7_enhancement':`I8', during hierarchy flattening.
    WARNING (SFE-102): "input.scs" 14: Parameter `ld', specified for model `NMOS_VTL' of primitive `bsim4', has been ignored because it is an invalid model parameter. Specify a valid model parameter and rerun the simulation. Type `spectre -h bsim4' to get more information on valid model parameters.

Time for Elaboration: CPU = 25.342 ms, elapsed = 28.5149 ms.
Time accumulated: CPU = 178.934 ms, elapsed = 289.78 ms.
Peak resident memory used = 63.6 Mbytes.


Warning from spectre during hierarchy flattening.
    WARNING (SPECTRE-17101): The value 'psf' specified using the 'checklimitdest' option will no longer be supported in future releases.


Time for EDB Visiting: CPU = 1.053 ms, elapsed = 1.05286 ms.
Time accumulated: CPU = 180.188 ms, elapsed = 291.032 ms.
Peak resident memory used = 64.4 Mbytes.


Global user options:
         psfversion = 1.1.0
            vabstol = 1e-06
            iabstol = 1e-12
               temp = 27
               gmin = 1e-12
             rforce = 1
           maxnotes = 5
           maxwarns = 5
             digits = 5
               cols = 80
             pivrel = 0.001
           sensfile = ../psf/sens.output
     checklimitdest = psf
               save = allpub
             reltol = 0.001
               tnom = 27
             scalem = 1
              scale = 1

Scoped user options:

Circuit inventory:
              nodes 3
              bsim4 1     
          capacitor 1     
           resistor 1     
            vsource 2     

Analysis and control statement inventory:
                 dc 1     
               info 6     

Output statements:
             .probe 0     
           .measure 0     
               save 0     

Time for parsing: CPU = 4.13 ms, elapsed = 9.02104 ms.
Time accumulated: CPU = 184.475 ms, elapsed = 300.21 ms.
Peak resident memory used = 66 Mbytes.

~~~~~~~~~~~~~~~~~~~~~~
Pre-Simulation Summary
~~~~~~~~~~~~~~~~~~~~~~
~~~~~~~~~~~~~~~~~~~~~~
Entering remote command mode using MPSC service (spectre, ipi, v0.0, spectre1_31633_2, ).

**************************************************
DC Analysis `dc': INPUT_SIGNAL:dc = (0 V -> 1.2 V)
**************************************************

Opening the PSF file ../psf/dc.dc ...
Important parameter values:
    reltol = 1e-03
    abstol(V) = 1 uV
    abstol(I) = 1 pA
    temp = 27 C
    tnom = 27 C
    tempeffects = all
    gmindc = 1 pS
    dc: dc = 48 mV          (4 %), step = 24 mV           (2 %)
    dc: dc = 72 mV          (6 %), step = 24 mV           (2 %)
    dc: dc = 96 mV          (8 %), step = 24 mV           (2 %)
    dc: dc = 120 mV        (10 %), step = 24 mV           (2 %)
    dc: dc = 144 mV        (12 %), step = 24 mV           (2 %)
    dc: dc = 168 mV        (14 %), step = 24 mV           (2 %)
    dc: dc = 192 mV        (16 %), step = 24 mV           (2 %)
    dc: dc = 216 mV        (18 %), step = 24 mV           (2 %)
    dc: dc = 240 mV        (20 %), step = 24 mV           (2 %)
    dc: dc = 264 mV        (22 %), step = 24 mV           (2 %)
    dc: dc = 288 mV        (24 %), step = 24 mV           (2 %)
    dc: dc = 312 mV        (26 %), step = 24 mV           (2 %)
    dc: dc = 336 mV        (28 %), step = 24 mV           (2 %)
    dc: dc = 360 mV        (30 %), step = 24 mV           (2 %)
    dc: dc = 384 mV        (32 %), step = 24 mV           (2 %)
    dc: dc = 408 mV        (34 %), step = 24 mV           (2 %)
    dc: dc = 432 mV        (36 %), step = 24 mV           (2 %)
    dc: dc = 456 mV        (38 %), step = 24 mV           (2 %)
    dc: dc = 480 mV        (40 %), step = 24 mV           (2 %)
    dc: dc = 504 mV        (42 %), step = 24 mV           (2 %)
    dc: dc = 528 mV        (44 %), step = 24 mV           (2 %)
    dc: dc = 552 mV        (46 %), step = 24 mV           (2 %)
    dc: dc = 576 mV        (48 %), step = 24 mV           (2 %)
    dc: dc = 600 mV        (50 %), step = 24 mV           (2 %)
    dc: dc = 624 mV        (52 %), step = 24 mV           (2 %)
    dc: dc = 648 mV        (54 %), step = 24 mV           (2 %)
    dc: dc = 672 mV        (56 %), step = 24 mV           (2 %)
    dc: dc = 696 mV        (58 %), step = 24 mV           (2 %)
    dc: dc = 720 mV        (60 %), step = 24 mV           (2 %)
    dc: dc = 744 mV        (62 %), step = 24 mV           (2 %)
    dc: dc = 768 mV        (64 %), step = 24 mV           (2 %)
    dc: dc = 792 mV        (66 %), step = 24 mV           (2 %)
    dc: dc = 816 mV        (68 %), step = 24 mV           (2 %)
    dc: dc = 840 mV        (70 %), step = 24 mV           (2 %)
    dc: dc = 864 mV        (72 %), step = 24 mV           (2 %)
    dc: dc = 888 mV        (74 %), step = 24 mV           (2 %)
    dc: dc = 912 mV        (76 %), step = 24 mV           (2 %)
    dc: dc = 936 mV        (78 %), step = 24 mV           (2 %)
    dc: dc = 960 mV        (80 %), step = 24 mV           (2 %)
    dc: dc = 984 mV        (82 %), step = 24 mV           (2 %)
    dc: dc = 1.008 V       (84 %), step = 24 mV           (2 %)
    dc: dc = 1.032 V       (86 %), step = 24 mV           (2 %)
    dc: dc = 1.056 V       (88 %), step = 24 mV           (2 %)
    dc: dc = 1.08 V        (90 %), step = 24 mV           (2 %)
    dc: dc = 1.104 V       (92 %), step = 24 mV           (2 %)
    dc: dc = 1.128 V       (94 %), step = 24 mV           (2 %)
    dc: dc = 1.152 V       (96 %), step = 24 mV           (2 %)
    dc: dc = 1.176 V       (98 %), step = 24 mV           (2 %)
    dc: dc = 1.2 V        (100 %), step = 24 mV           (2 %)

Maximum value achieved for any signal of each quantity: 
V: V(net2) = 1.2 V
I: I(V0:p) = 2.286 uA
DC simulation time: CPU = 10.196 ms, elapsed = 15.96 ms.

Notice from spectre at dc = 1.2 V during DC analysis `dc'.
    The value of parameter 'dc' has been reset to the original value 1.2.

Total time required for dc analysis `dc': CPU = 10.288 ms, elapsed = 16.0382 ms.
Time accumulated: CPU = 201.897 ms, elapsed = 371.318 ms.
Peak resident memory used = 67.7 Mbytes.

modelParameter: writing model parameter values to rawfile.

Opening the PSF file ../psf/modelParameter.info ...
element: writing instance parameter values to rawfile.

Opening the PSF file ../psf/element.info ...
outputParameter: writing output parameter values to rawfile.

Opening the PSF file ../psf/outputParameter.info ...
designParamVals: writing netlist parameters to rawfile.

Opening the PSFASCII file ../psf/designParamVals.info ...
primitives: writing primitives to rawfile.

Opening the PSFASCII file ../psf/primitives.info.primitives ...
subckts: writing subcircuits to rawfile.

Opening the PSFASCII file ../psf/subckts.info.subckts ...

Spectre received SIGTERM sent from PID: 1 with UID: 0.
Process hierarchy of PID 1 :
    PID        COMMAND
    1          /usr/lib/systemd/systemd --switched-root --system --deserialize 22 

Error found by spectre.
    ERROR (SPECTRE-25): Killed by user.
