
Spectre (R) Circuit Simulator
Version 18.1.0.464.isr11 64bit -- 21 Sep 2019
Copyright (C) 1989-2019 Cadence Design Systems, Inc. All rights reserved worldwide. Cadence and Spectre are registered trademarks of Cadence Design Systems, Inc. All others are the property of their respective holders.

Includes RSA BSAFE(R) Cryptographic or Security Protocol Software from RSA Security, Inc.

User: sai9   Host: mo.ece.pdx.edu   HostID: DA0A14CF   PID: 30299
Memory  available: 494.3626 MB  physical: 89.5774 GB
Linux   : CentOS Linux release 7.9.2009 (Core)
CPU Type: Intel Xeon E312xx (Sandy Bridge, IBRS update)
All processors running at 2600.0 MHz
        Socket: Processors
        0:       0
        1:       1
        2:       2
        3:       3
        4:       4
        5:       5
        6:       6
        7:       7
        8:       8
        9:       9
        10:     10
        11:     11
        12:     12
        13:     13
        14:     14
        15:     15
        16:     16
        17:     17
        18:     18
        19:     19
        20:     20
        21:     21
        22:     22
        23:     23
        24:     24
        25:     25
        26:     26
        27:     27
        28:     28
        29:     29
        30:     30
        31:     31
        
System load averages (1min, 5min, 15min) : 4.0 %, 9.4 %, 9.2 %


Simulating `input.scs' on mo.ece.pdx.edu at 7:55:44 PM, Fri Oct 28, 2022 (process id: 30299).
Current working directory: /u/sai9/simulation/inverter_1_1_man_tb/spectre/schematic/netlist
Command line:
    /pkgs/cadence/2019-03/SPECTRE181/tools.lnx86/bin/spectre -64  \
        input.scs +escchars +log ../psf/spectre.out +inter=mpsc  \
        +mpssession=spectre4_10307_12 -format psfxl -raw ../psf  \
        +lqtimeout 900 -maxw 5 -maxn 5 -env ade
spectre pid = 30299

Loading /pkgs/cadence/2019-03/SPECTRE181/tools.lnx86/cmi/lib/64bit/5.0/libinfineon_sh.so ...
Loading /pkgs/cadence/2019-03/SPECTRE181/tools.lnx86/cmi/lib/64bit/5.0/libphilips_o_sh.so ...
Loading /pkgs/cadence/2019-03/SPECTRE181/tools.lnx86/cmi/lib/64bit/5.0/libphilips_sh.so ...
Loading /pkgs/cadence/2019-03/SPECTRE181/tools.lnx86/cmi/lib/64bit/5.0/libsparam_sh.so ...
Loading /pkgs/cadence/2019-03/SPECTRE181/tools.lnx86/cmi/lib/64bit/5.0/libstmodels_sh.so ...
Reading file:  /u/sai9/simulation/inverter_1_1_man_tb/spectre/schematic/netlist/input.scs
Reading file:  /pkgs/cadence/2019-03/SPECTRE181/tools.lnx86/spectre/etc/configs/spectre.cfg
Reading file:  /u/sai9/FreePDK45/osu_soc/lib/files/gpdk45nm.m
Time for NDB Parsing: CPU = 105.037 ms, elapsed = 292.646 ms.
Time accumulated: CPU = 158.093 ms, elapsed = 292.654 ms.
Peak resident memory used = 59.8 Mbytes.


Warning from spectre in `group7_enhancement':`I8', during hierarchy flattening.
    WARNING (SFE-102): "input.scs" 14: Parameter `ld', specified for model `NMOS_VTL' of primitive `bsim4', has been ignored because it is an invalid model parameter. Specify a valid model parameter and rerun the simulation. Type `spectre -h bsim4' to get more information on valid model parameters.

Time for Elaboration: CPU = 26.694 ms, elapsed = 28.5029 ms.
Time accumulated: CPU = 185.058 ms, elapsed = 321.427 ms.
Peak resident memory used = 67.4 Mbytes.


Warning from spectre during hierarchy flattening.
    WARNING (SPECTRE-17101): The value 'psf' specified using the 'checklimitdest' option will no longer be supported in future releases.


Time for EDB Visiting: CPU = 1.193 ms, elapsed = 1.19305 ms.
Time accumulated: CPU = 186.446 ms, elapsed = 322.812 ms.
Peak resident memory used = 68.2 Mbytes.


Global user options:
         psfversion = 1.1.0
            vabstol = 1e-06
            iabstol = 1e-12
               temp = 27
               gmin = 1e-12
             rforce = 1
           maxnotes = 5
           maxwarns = 5
             digits = 5
               cols = 80
             pivrel = 0.001
           sensfile = ../psf/sens.output
     checklimitdest = psf
               save = allpub
             reltol = 0.001
               tnom = 27
             scalem = 1
              scale = 1

Scoped user options:

Circuit inventory:
              nodes 3
              bsim4 1     
          capacitor 1     
           resistor 1     
            vsource 2     

Analysis and control statement inventory:
               info 7     
               tran 1     

Output statements:
             .probe 0     
           .measure 0     
               save 0     

Time for parsing: CPU = 4.468 ms, elapsed = 10.6108 ms.
Time accumulated: CPU = 191.093 ms, elapsed = 333.602 ms.
Peak resident memory used = 69.8 Mbytes.

~~~~~~~~~~~~~~~~~~~~~~
Pre-Simulation Summary
~~~~~~~~~~~~~~~~~~~~~~
~~~~~~~~~~~~~~~~~~~~~~
Entering remote command mode using MPSC service (spectre, ipi, v0.0, spectre4_10307_12, ).

************************************************
Transient Analysis `tran': time = (0 s -> 30 ns)
************************************************
DC simulation time: CPU = 834 us, elapsed = 835.896 us.

Opening the PSFXL file ../psf/tran.tran.tran ...
Important parameter values:
    start = 0 s
    outputstart = 0 s
    stop = 30 ns
    step = 30 ps
    maxstep = 600 ps
    ic = all
    useprevic = no
    skipdc = no
    reltol = 1e-03
    abstol(V) = 1 uV
    abstol(I) = 1 pA
    temp = 27 C
    tnom = 27 C
    tempeffects = all
    errpreset = moderate
    method = traponly
    lteratio = 3.5
    relref = sigglobal
    cmin = 0 F
    gmin = 1 pS


Output and IC/nodeset summary:
                 save   2       (current)
                 save   3       (voltage)

    tran: time = 924.7 ps    (3.08 %), step = 225.8 ps     (753 m%)

Notice from spectre at time = 1.37621 ns during transient analysis `tran'.
    Found trapezoidal ringing on node INPUT_SIGNAL:p.
Notice from spectre at time = 1.97621 ns during transient analysis `tran'.
    Found trapezoidal ringing on node INPUT_SIGNAL:p.
Notice from spectre at time = 2.57621 ns during transient analysis `tran'.
    Found trapezoidal ringing on node INPUT_SIGNAL:p.

    tran: time = 2.576 ns    (8.59 %), step = 600 ps          (2 %)

Notice from spectre at time = 3.17621 ns during transient analysis `tran'.
    Found trapezoidal ringing on node INPUT_SIGNAL:p.
Notice from spectre at time = 3.77621 ns during transient analysis `tran'.
    Found trapezoidal ringing on node INPUT_SIGNAL:p.
        Further occurrences of this notice will be suppressed.

    tran: time = 3.776 ns    (12.6 %), step = 600 ps          (2 %)
    tran: time = 5.303 ns    (17.7 %), step = 83.68 ps     (279 m%)
    tran: time = 6.896 ns      (23 %), step = 562.3 ps     (1.87 %)
    tran: time = 8.696 ns      (29 %), step = 600 ps          (2 %)
    tran: time = 10 ns       (33.3 %), step = 352.2 ps     (1.17 %)
    tran: time = 11.74 ns    (39.1 %), step = 600 ps          (2 %)
    tran: time = 12.94 ns    (43.1 %), step = 600 ps          (2 %)
    tran: time = 14.6 ns     (48.7 %), step = 462.2 ps     (1.54 %)
    tran: time = 16.25 ns    (54.2 %), step = 524.5 ps     (1.75 %)
    tran: time = 17.41 ns      (58 %), step = 600 ps          (2 %)
    tran: time = 19.21 ns      (64 %), step = 600 ps          (2 %)
    tran: time = 20.28 ns    (67.6 %), step = 40.42 ps     (135 m%)
    tran: time = 22.31 ns    (74.4 %), step = 600 ps          (2 %)
    tran: time = 23.51 ns    (78.4 %), step = 600 ps          (2 %)
    tran: time = 25.07 ns    (83.6 %), step = 476 ps       (1.59 %)
    tran: time = 26.8 ns     (89.3 %), step = 551.9 ps     (1.84 %)
    tran: time = 28 ns       (93.3 %), step = 600 ps          (2 %)
    tran: time = 29.6 ns     (98.7 %), step = 401.8 ps     (1.34 %)
Number of accepted tran steps =             158

Notice from spectre during transient analysis `tran'.
    Trapezoidal ringing is detected during tran analysis.
        Please use method=trap for better results and performance.


Maximum value achieved for any signal of each quantity: 
V: V(vdd!) = 1.2 V
I: I(V0:p) = 8.714 uA
If your circuit contains signals of the same quantity that are vastly different in size (such as high voltage circuitry combined with low voltage control circuitry), you should consider specifying global option `bin_relref=yes'.

~~~~~~~~~~~~~~~~~~~~~~~~~~~~~~~~~
Post-Transient Simulation Summary
~~~~~~~~~~~~~~~~~~~~~~~~~~~~~~~~~
   -   To further speed up simulation, consider
          add ++aps on command line
~~~~~~~~~~~~~~~~~~~~~~~~~~~~~~~~~


During simulation, the CPU load for active processors is :
        Spectre  0 (3.0 %)       1 (9.4 %)       2 (3.3 %)       4 (9.4 %)
                 5 (3.2 %)       6 (6.2 %)       8 (6.2 %)       9 (3.1 %)
                11 (15.2 %)     12 (6.2 %)      13 (12.1 %)     15 (16.1 %)
                16 (3.1 %)      17 (6.1 %)      18 (13.3 %)     19 (3.1 %)
                21 (48.4 %)     22 (9.4 %)      23 (5.9 %)      24 (3.1 %)
                26 (9.7 %)      27 (6.1 %)      28 (9.4 %)      29 (6.1 %)
                30 (6.1 %)      31 (21.2 %)     
        Other   
Initial condition solution time: CPU = 973 us, elapsed = 977.993 us.
Intrinsic tran analysis time:    CPU = 21.877 ms, elapsed = 41.908 ms.
Total time required for tran analysis `tran': CPU = 28.138 ms, elapsed = 56.025 ms.
Time accumulated: CPU = 231.734 ms, elapsed = 489.603 ms.
Peak resident memory used = 72.6 Mbytes.


Notice from spectre.
    16 notices suppressed.

finalTimeOP: writing operating point information to rawfile.

Opening the PSF file ../psf/finalTimeOP.info ...
modelParameter: writing model parameter values to rawfile.

Opening the PSF file ../psf/modelParameter.info ...
element: writing instance parameter values to rawfile.

Opening the PSF file ../psf/element.info ...
outputParameter: writing output parameter values to rawfile.

Opening the PSF file ../psf/outputParameter.info ...
designParamVals: writing netlist parameters to rawfile.

Opening the PSFASCII file ../psf/designParamVals.info ...
primitives: writing primitives to rawfile.

Opening the PSFASCII file ../psf/primitives.info.primitives ...
subckts: writing subcircuits to rawfile.

Opening the PSFASCII file ../psf/subckts.info.subckts ...
