
Spectre (R) Circuit Simulator
Version 18.1.0.464.isr11 64bit -- 21 Sep 2019
Copyright (C) 1989-2019 Cadence Design Systems, Inc. All rights reserved worldwide. Cadence and Spectre are registered trademarks of Cadence Design Systems, Inc. All others are the property of their respective holders.

Includes RSA BSAFE(R) Cryptographic or Security Protocol Software from RSA Security, Inc.

User: sai9   Host: mo.ece.pdx.edu   HostID: DA0A14CF   PID: 21242
Memory  available: 14.5959 GB  physical: 89.5774 GB
Linux   : CentOS Linux release 7.9.2009 (Core)
CPU Type: Intel Xeon E312xx (Sandy Bridge, IBRS update)
All processors running at 2600.0 MHz
        Socket: Processors
        0:       0
        1:       1
        2:       2
        3:       3
        4:       4
        5:       5
        6:       6
        7:       7
        8:       8
        9:       9
        10:     10
        11:     11
        12:     12
        13:     13
        14:     14
        15:     15
        16:     16
        17:     17
        18:     18
        19:     19
        20:     20
        21:     21
        22:     22
        23:     23
        24:     24
        25:     25
        26:     26
        27:     27
        28:     28
        29:     29
        30:     30
        31:     31
        
System load averages (1min, 5min, 15min) : 3.0 %, 2.3 %, 2.1 %


Simulating `input.scs' on mo.ece.pdx.edu at 9:15:04 PM, Sat Oct 22, 2022 (process id: 21242).
Current working directory: /u/sai9/simulation/inverter_1_1_man_tb/spectre/schematic/netlist
Command line:
    /pkgs/cadence/2019-03/SPECTRE181/tools.lnx86/bin/spectre -64  \
        input.scs +escchars +log ../psf/spectre.out +inter=mpsc  \
        +mpssession=spectre2_26594_8 -format psfxl -raw ../psf  \
        +lqtimeout 900 -maxw 5 -maxn 5 -env ade
spectre pid = 21242

Loading /pkgs/cadence/2019-03/SPECTRE181/tools.lnx86/cmi/lib/64bit/5.0/libinfineon_sh.so ...
Loading /pkgs/cadence/2019-03/SPECTRE181/tools.lnx86/cmi/lib/64bit/5.0/libphilips_o_sh.so ...
Loading /pkgs/cadence/2019-03/SPECTRE181/tools.lnx86/cmi/lib/64bit/5.0/libphilips_sh.so ...
Loading /pkgs/cadence/2019-03/SPECTRE181/tools.lnx86/cmi/lib/64bit/5.0/libsparam_sh.so ...
Loading /pkgs/cadence/2019-03/SPECTRE181/tools.lnx86/cmi/lib/64bit/5.0/libstmodels_sh.so ...
Reading file:  /u/sai9/simulation/inverter_1_1_man_tb/spectre/schematic/netlist/input.scs
Reading file:  /pkgs/cadence/2019-03/SPECTRE181/tools.lnx86/spectre/etc/configs/spectre.cfg
Reading file:  /u/sai9/FreePDK45/osu_soc/lib/files/gpdk45nm.m
Time for NDB Parsing: CPU = 96.633 ms, elapsed = 259.546 ms.
Time accumulated: CPU = 158.479 ms, elapsed = 259.559 ms.
Peak resident memory used = 57.9 Mbytes.


Warning from spectre in `inverter_1_1_main':`I7', during hierarchy flattening.
    WARNING (SFE-102): "input.scs" 14: Parameter `ld', specified for model `NMOS_VTL' of primitive `bsim4', has been ignored because it is an invalid model parameter. Specify a valid model parameter and rerun the simulation. Type `spectre -h bsim4' to get more information on valid model parameters.
    WARNING (SFE-102): "input.scs" 16: Parameter `ld', specified for model `NMOS_VTL' of primitive `bsim4', has been ignored because it is an invalid model parameter. Specify a valid model parameter and rerun the simulation. Type `spectre -h bsim4' to get more information on valid model parameters.

Time for Elaboration: CPU = 25.701 ms, elapsed = 28.2331 ms.
Time accumulated: CPU = 184.379 ms, elapsed = 287.989 ms.
Peak resident memory used = 65.5 Mbytes.


Warning from spectre during hierarchy flattening.
    WARNING (SPECTRE-17101): The value 'psf' specified using the 'checklimitdest' option will no longer be supported in future releases.


Time for EDB Visiting: CPU = 1.296 ms, elapsed = 1.2958 ms.
Time accumulated: CPU = 185.904 ms, elapsed = 289.512 ms.
Peak resident memory used = 66.2 Mbytes.


Global user options:
         psfversion = 1.1.0
            vabstol = 1e-06
            iabstol = 1e-12
               temp = 27
               gmin = 1e-12
             rforce = 1
           maxnotes = 5
           maxwarns = 5
             digits = 5
               cols = 80
             pivrel = 0.001
           sensfile = ../psf/sens.output
     checklimitdest = psf
               save = allpub
             reltol = 0.001
               tnom = 27
             scalem = 1
              scale = 1

Scoped user options:

Circuit inventory:
              nodes 3
              bsim4 2     
          capacitor 1     
            vsource 2     

Analysis and control statement inventory:
               info 7     
               tran 1     

Output statements:
             .probe 0     
           .measure 0     
               save 0     

Time for parsing: CPU = 5.144 ms, elapsed = 8.34203 ms.
Time accumulated: CPU = 191.215 ms, elapsed = 298.021 ms.
Peak resident memory used = 67.9 Mbytes.

~~~~~~~~~~~~~~~~~~~~~~
Pre-Simulation Summary
~~~~~~~~~~~~~~~~~~~~~~
~~~~~~~~~~~~~~~~~~~~~~
Entering remote command mode using MPSC service (spectre, ipi, v0.0, spectre2_26594_8, ).

************************************************
Transient Analysis `tran': time = (0 s -> 30 ns)
************************************************
DC simulation time: CPU = 1.612 ms, elapsed = 1.61386 ms.

Opening the PSFXL file ../psf/tran.tran.tran ...
Important parameter values:
    start = 0 s
    outputstart = 0 s
    stop = 30 ns
    step = 30 ps
    maxstep = 600 ps
    ic = all
    useprevic = no
    skipdc = no
    reltol = 1e-03
    abstol(V) = 1 uV
    abstol(I) = 1 pA
    temp = 27 C
    tnom = 27 C
    tempeffects = all
    errpreset = moderate
    method = traponly
    lteratio = 3.5
    relref = sigglobal
    cmin = 0 F
    gmin = 1 pS


Output and IC/nodeset summary:
                 save   2       (current)
                 save   3       (voltage)


Notice from spectre at time = 1.04904 ns during transient analysis `tran'.
    Found trapezoidal ringing on node V0:p.

    tran: time = 1.049 ns     (3.5 %), step = 337 ps       (1.12 %)

Notice from spectre at time = 1.64904 ns during transient analysis `tran'.
    Found trapezoidal ringing on node V0:p.
Notice from spectre at time = 2.24904 ns during transient analysis `tran'.
    Found trapezoidal ringing on node V0:p.
Notice from spectre at time = 2.84904 ns during transient analysis `tran'.
    Found trapezoidal ringing on node V0:p.

    tran: time = 2.849 ns     (9.5 %), step = 600 ps          (2 %)

Notice from spectre at time = 3.44904 ns during transient analysis `tran'.
    Found trapezoidal ringing on node V0:p.
        Further occurrences of this notice will be suppressed.

    tran: time = 4.049 ns    (13.5 %), step = 600 ps          (2 %)
    tran: time = 5.305 ns    (17.7 %), step = 101.7 ps     (339 m%)
    tran: time = 6.776 ns    (22.6 %), step = 345.6 ps     (1.15 %)
    tran: time = 8.358 ns    (27.9 %), step = 600 ps          (2 %)
    tran: time = 10 ns       (33.3 %), step = 442.5 ps     (1.47 %)
    tran: time = 11.78 ns    (39.3 %), step = 600 ps          (2 %)
    tran: time = 12.98 ns    (43.3 %), step = 600 ps          (2 %)
    tran: time = 14.61 ns    (48.7 %), step = 436.4 ps     (1.45 %)
    tran: time = 15.91 ns      (53 %), step = 189 ps       (630 m%)
    tran: time = 17.73 ns    (59.1 %), step = 544.1 ps     (1.81 %)
    tran: time = 18.93 ns    (63.1 %), step = 600 ps          (2 %)
    tran: time = 20.26 ns    (67.5 %), step = 35.78 ps     (119 m%)
    tran: time = 21.78 ns    (72.6 %), step = 600 ps          (2 %)
    tran: time = 23.58 ns    (78.6 %), step = 600 ps          (2 %)
    tran: time = 25.05 ns    (83.5 %), step = 436.4 ps     (1.45 %)
    tran: time = 26.42 ns    (88.1 %), step = 278.2 ps     (927 m%)
    tran: time = 28.33 ns    (94.4 %), step = 600 ps          (2 %)
    tran: time = 29.53 ns    (98.4 %), step = 600 ps          (2 %)
Number of accepted tran steps =             163

Notice from spectre during transient analysis `tran'.
    Trapezoidal ringing is detected during tran analysis.
        Please use method=trap for better results and performance.


Maximum value achieved for any signal of each quantity: 
V: V(I7.pull_up:int_g) = 1.2 V
I: I(V0:p) = 17.76 uA
If your circuit contains signals of the same quantity that are vastly different in size (such as high voltage circuitry combined with low voltage control circuitry), you should consider specifying global option `bin_relref=yes'.

~~~~~~~~~~~~~~~~~~~~~~~~~~~~~~~~~
Post-Transient Simulation Summary
~~~~~~~~~~~~~~~~~~~~~~~~~~~~~~~~~
   -   To further speed up simulation, consider
          add ++aps on command line
~~~~~~~~~~~~~~~~~~~~~~~~~~~~~~~~~


During simulation, the CPU load for active processors is :
        Spectre  8 (17.2 %)      9 (3.3 %)      12 (31.0 %)     13 (20.0 %)
                14 (35.7 %)     17 (6.9 %)      19 (17.2 %)     21 (48.3 %)
                24 (3.3 %)      28 (10.7 %)     29 (3.4 %)      30 (10.3 %)
        Other   
Initial condition solution time: CPU = 1.876 ms, elapsed = 1.88184 ms.
Intrinsic tran analysis time:    CPU = 20.279 ms, elapsed = 40.2181 ms.
Total time required for tran analysis `tran': CPU = 26.672 ms, elapsed = 52.9709 ms.
Time accumulated: CPU = 229.159 ms, elapsed = 426.757 ms.
Peak resident memory used = 70.7 Mbytes.


Notice from spectre.
    17 notices suppressed.

finalTimeOP: writing operating point information to rawfile.

Opening the PSF file ../psf/finalTimeOP.info ...
modelParameter: writing model parameter values to rawfile.

Opening the PSF file ../psf/modelParameter.info ...
element: writing instance parameter values to rawfile.

Opening the PSF file ../psf/element.info ...
outputParameter: writing output parameter values to rawfile.

Opening the PSF file ../psf/outputParameter.info ...
designParamVals: writing netlist parameters to rawfile.

Opening the PSFASCII file ../psf/designParamVals.info ...
primitives: writing primitives to rawfile.

Opening the PSFASCII file ../psf/primitives.info.primitives ...
subckts: writing subcircuits to rawfile.

Opening the PSFASCII file ../psf/subckts.info.subckts ...

************************************************
Transient Analysis `tran': time = (0 s -> 30 ns)
************************************************
DC simulation time: CPU = 565 us, elapsed = 567.913 us.

Opening the PSFXL file ../psf/tran.tran.tran ...
Important parameter values:
    start = 0 s
    outputstart = 0 s
    stop = 30 ns
    step = 30 ps
    maxstep = 600 ps
    ic = all
    useprevic = no
    skipdc = no
    reltol = 1e-03
    abstol(V) = 1 uV
    abstol(I) = 1 pA
    temp = 27 C
    tnom = 27 C
    tempeffects = all
    errpreset = moderate
    method = traponly
    lteratio = 3.5
    relref = sigglobal
    cmin = 0 F
    gmin = 1 pS


Output and IC/nodeset summary:
                 save   2       (current)
                 save   3       (voltage)


Notice from spectre at time = 1.04904 ns during transient analysis `tran'.
    Found trapezoidal ringing on node V0:p.

    tran: time = 1.049 ns     (3.5 %), step = 337 ps       (1.12 %)

Notice from spectre at time = 1.64904 ns during transient analysis `tran'.
    Found trapezoidal ringing on node V0:p.
Notice from spectre at time = 2.24904 ns during transient analysis `tran'.
    Found trapezoidal ringing on node V0:p.
Notice from spectre at time = 2.84904 ns during transient analysis `tran'.
    Found trapezoidal ringing on node V0:p.

    tran: time = 2.849 ns     (9.5 %), step = 600 ps          (2 %)

Notice from spectre at time = 3.44904 ns during transient analysis `tran'.
    Found trapezoidal ringing on node V0:p.
        Further occurrences of this notice will be suppressed.

    tran: time = 4.049 ns    (13.5 %), step = 600 ps          (2 %)
    tran: time = 5.305 ns    (17.7 %), step = 101.7 ps     (339 m%)
    tran: time = 6.776 ns    (22.6 %), step = 345.6 ps     (1.15 %)
    tran: time = 8.358 ns    (27.9 %), step = 600 ps          (2 %)
    tran: time = 10 ns       (33.3 %), step = 442.5 ps     (1.47 %)
    tran: time = 11.78 ns    (39.3 %), step = 600 ps          (2 %)
    tran: time = 12.98 ns    (43.3 %), step = 600 ps          (2 %)
    tran: time = 14.61 ns    (48.7 %), step = 436.4 ps     (1.45 %)
    tran: time = 15.91 ns      (53 %), step = 189 ps       (630 m%)
    tran: time = 17.73 ns    (59.1 %), step = 544.1 ps     (1.81 %)
    tran: time = 18.93 ns    (63.1 %), step = 600 ps          (2 %)
    tran: time = 20.26 ns    (67.5 %), step = 35.78 ps     (119 m%)
    tran: time = 21.78 ns    (72.6 %), step = 600 ps          (2 %)
    tran: time = 23.58 ns    (78.6 %), step = 600 ps          (2 %)
    tran: time = 25.05 ns    (83.5 %), step = 436.4 ps     (1.45 %)
    tran: time = 26.42 ns    (88.1 %), step = 278.2 ps     (927 m%)
    tran: time = 28.33 ns    (94.4 %), step = 600 ps          (2 %)
    tran: time = 29.53 ns    (98.4 %), step = 600 ps          (2 %)
Number of accepted tran steps =             163

Notice from spectre during transient analysis `tran'.
    Trapezoidal ringing is detected during tran analysis.
        Please use method=trap for better results and performance.


Maximum value achieved for any signal of each quantity: 
V: V(I7.pull_up:int_g) = 1.2 V
I: I(V0:p) = 17.76 uA
If your circuit contains signals of the same quantity that are vastly different in size (such as high voltage circuitry combined with low voltage control circuitry), you should consider specifying global option `bin_relref=yes'.

~~~~~~~~~~~~~~~~~~~~~~~~~~~~~~~~~
Post-Transient Simulation Summary
~~~~~~~~~~~~~~~~~~~~~~~~~~~~~~~~~
   -   To further speed up simulation, consider
          add ++aps on command line
~~~~~~~~~~~~~~~~~~~~~~~~~~~~~~~~~


During simulation, the CPU load for active processors is :
        Spectre  0 (1.8 %)       1 (3.7 %)       2 (2.9 %)       3 (2.5 %)
                 4 (2.8 %)       5 (1.6 %)       6 (2.5 %)       7 (1.5 %)
                 8 (2.5 %)       9 (2.3 %)      10 (1.4 %)      11 (2.2 %)
                12 (1.7 %)      13 (1.1 %)      14 (3.0 %)      15 (1.1 %)
                16 (1.3 %)      20 (1.0 %)      21 (3.7 %)      23 (1.3 %)
                24 (1.0 %)      25 (1.2 %)      26 (1.4 %)      27 (1.5 %)
                28 (1.6 %)      29 (1.2 %)      30 (1.3 %)      31 (1.8 %)
        Other   
Initial condition solution time: CPU = 663 us, elapsed = 668.764 us.
Intrinsic tran analysis time:    CPU = 19.045 ms, elapsed = 39.6378 ms.
Total time required for tran analysis `tran': CPU = 24.092 ms, elapsed = 63.9961 ms.
Time accumulated: CPU = 283.213 ms, elapsed = 61.6194 s (1m  1.6s).
Peak resident memory used = 71.9 Mbytes.


Notice from spectre.
    17 notices suppressed.

finalTimeOP: writing operating point information to rawfile.

Opening the PSF file ../psf/finalTimeOP.info ...
modelParameter: writing model parameter values to rawfile.

Opening the PSF file ../psf/modelParameter.info ...
element: writing instance parameter values to rawfile.

Opening the PSF file ../psf/element.info ...
outputParameter: writing output parameter values to rawfile.

Opening the PSF file ../psf/outputParameter.info ...
designParamVals: writing netlist parameters to rawfile.

Opening the PSFASCII file ../psf/designParamVals.info ...
primitives: writing primitives to rawfile.

Opening the PSFASCII file ../psf/primitives.info.primitives ...
subckts: writing subcircuits to rawfile.

Opening the PSFASCII file ../psf/subckts.info.subckts ...
