
Spectre (R) Circuit Simulator
Version 18.1.0.464.isr11 64bit -- 21 Sep 2019
Copyright (C) 1989-2019 Cadence Design Systems, Inc. All rights reserved worldwide. Cadence and Spectre are registered trademarks of Cadence Design Systems, Inc. All others are the property of their respective holders.

Includes RSA BSAFE(R) Cryptographic or Security Protocol Software from RSA Security, Inc.

User: sai9   Host: mo.ece.pdx.edu   HostID: DA0A14CF   PID: 13573
Memory  available: 564.5639 MB  physical: 89.5774 GB
Linux   : CentOS Linux release 7.9.2009 (Core)
CPU Type: Intel Xeon E312xx (Sandy Bridge, IBRS update)
All processors running at 2600.0 MHz
        Socket: Processors
        0:       0
        1:       1
        2:       2
        3:       3
        4:       4
        5:       5
        6:       6
        7:       7
        8:       8
        9:       9
        10:     10
        11:     11
        12:     12
        13:     13
        14:     14
        15:     15
        16:     16
        17:     17
        18:     18
        19:     19
        20:     20
        21:     21
        22:     22
        23:     23
        24:     24
        25:     25
        26:     26
        27:     27
        28:     28
        29:     29
        30:     30
        31:     31
        
System load averages (1min, 5min, 15min) : 6.5 %, 15.8 %, 15.8 %


Simulating `input.scs' on mo.ece.pdx.edu at 6:14:48 PM, Fri Oct 28, 2022 (process id: 13573).
Current working directory: /u/sai9/simulation/res_inverter_1_1_man_tb/spectre/schematic/netlist
Command line:
    /pkgs/cadence/2019-03/SPECTRE181/tools.lnx86/bin/spectre -64  \
        input.scs +escchars +log ../psf/spectre.out +inter=mpsc  \
        +mpssession=spectre3_10307_8 -format psfxl -raw ../psf  \
        +lqtimeout 900 -maxw 5 -maxn 5 -env ade
spectre pid = 13573

Loading /pkgs/cadence/2019-03/SPECTRE181/tools.lnx86/cmi/lib/64bit/5.0/libinfineon_sh.so ...
Loading /pkgs/cadence/2019-03/SPECTRE181/tools.lnx86/cmi/lib/64bit/5.0/libphilips_o_sh.so ...
Loading /pkgs/cadence/2019-03/SPECTRE181/tools.lnx86/cmi/lib/64bit/5.0/libphilips_sh.so ...
Loading /pkgs/cadence/2019-03/SPECTRE181/tools.lnx86/cmi/lib/64bit/5.0/libsparam_sh.so ...
Loading /pkgs/cadence/2019-03/SPECTRE181/tools.lnx86/cmi/lib/64bit/5.0/libstmodels_sh.so ...
Reading file:  /u/sai9/simulation/res_inverter_1_1_man_tb/spectre/schematic/netlist/input.scs
Reading file:  /pkgs/cadence/2019-03/SPECTRE181/tools.lnx86/spectre/etc/configs/spectre.cfg
Reading file:  /u/sai9/FreePDK45/osu_soc/lib/files/gpdk45nm.m
Time for NDB Parsing: CPU = 106.057 ms, elapsed = 271.761 ms.
Time accumulated: CPU = 170.248 ms, elapsed = 271.77 ms.
Peak resident memory used = 57.9 Mbytes.


Warning from spectre in `group7_enhancement':`I8', during hierarchy flattening.
    WARNING (SFE-102): "input.scs" 14: Parameter `ld', specified for model `NMOS_VTL' of primitive `bsim4', has been ignored because it is an invalid model parameter. Specify a valid model parameter and rerun the simulation. Type `spectre -h bsim4' to get more information on valid model parameters.

Time for Elaboration: CPU = 27.383 ms, elapsed = 29.1309 ms.
Time accumulated: CPU = 197.829 ms, elapsed = 301.096 ms.
Peak resident memory used = 65.5 Mbytes.


Warning from spectre during hierarchy flattening.
    WARNING (SPECTRE-17101): The value 'psf' specified using the 'checklimitdest' option will no longer be supported in future releases.


Time for EDB Visiting: CPU = 1.201 ms, elapsed = 1.20115 ms.
Time accumulated: CPU = 199.232 ms, elapsed = 302.498 ms.
Peak resident memory used = 66.3 Mbytes.


Global user options:
         psfversion = 1.1.0
            vabstol = 1e-06
            iabstol = 1e-12
               temp = 27
               gmin = 1e-12
             rforce = 1
           maxnotes = 5
           maxwarns = 5
             digits = 5
               cols = 80
             pivrel = 0.001
           sensfile = ../psf/sens.output
     checklimitdest = psf
               save = allpub
             reltol = 0.001
               tnom = 27
             scalem = 1
              scale = 1

Scoped user options:

Circuit inventory:
              nodes 3
              bsim4 1     
          capacitor 1     
           resistor 1     
            vsource 2     

Analysis and control statement inventory:
               info 7     
               tran 1     

Output statements:
             .probe 0     
           .measure 0     
               save 0     

Time for parsing: CPU = 4.383 ms, elapsed = 8.64983 ms.
Time accumulated: CPU = 203.781 ms, elapsed = 311.314 ms.
Peak resident memory used = 67.9 Mbytes.

~~~~~~~~~~~~~~~~~~~~~~
Pre-Simulation Summary
~~~~~~~~~~~~~~~~~~~~~~
~~~~~~~~~~~~~~~~~~~~~~
Entering remote command mode using MPSC service (spectre, ipi, v0.0, spectre3_10307_8, ).

************************************************
Transient Analysis `tran': time = (0 s -> 30 ns)
************************************************
DC simulation time: CPU = 1.706 ms, elapsed = 1.70898 ms.

Opening the PSFXL file ../psf/tran.tran.tran ...
Important parameter values:
    start = 0 s
    outputstart = 0 s
    stop = 30 ns
    step = 30 ps
    maxstep = 600 ps
    ic = all
    useprevic = no
    skipdc = no
    reltol = 1e-03
    abstol(V) = 1 uV
    abstol(I) = 1 pA
    temp = 27 C
    tnom = 27 C
    tempeffects = all
    errpreset = moderate
    method = traponly
    lteratio = 3.5
    relref = sigglobal
    cmin = 0 F
    gmin = 1 pS


Output and IC/nodeset summary:
                 save   2       (current)
                 save   3       (voltage)

    tran: time = 769.1 ps    (2.56 %), step = 159 ps       (530 m%)
    tran: time = 2.281 ns     (7.6 %), step = 600 ps          (2 %)

Notice from spectre at time = 2.88098 ns during transient analysis `tran'.
    Found trapezoidal ringing on node INPUT_SIGNAL:p.
Notice from spectre at time = 3.48098 ns during transient analysis `tran'.
    Found trapezoidal ringing on node INPUT_SIGNAL:p.
Notice from spectre at time = 4.08098 ns during transient analysis `tran'.
    Found trapezoidal ringing on node INPUT_SIGNAL:p.

    tran: time = 4.081 ns    (13.6 %), step = 600 ps          (2 %)

Notice from spectre at time = 4.57382 ns during transient analysis `tran'.
    Found trapezoidal ringing on node INPUT_SIGNAL:p.
Notice from spectre at time = 5.06667 ns during transient analysis `tran'.
    Found trapezoidal ringing on node INPUT_SIGNAL:p.
        Further occurrences of this notice will be suppressed.

    tran: time = 5.28 ns     (17.6 %), step = 71.71 ps     (239 m%)
    tran: time = 6.884 ns    (22.9 %), step = 600 ps          (2 %)
    tran: time = 8.684 ns    (28.9 %), step = 600 ps          (2 %)
    tran: time = 10 ns       (33.3 %), step = 358.2 ps     (1.19 %)
    tran: time = 11.72 ns    (39.1 %), step = 600 ps          (2 %)
    tran: time = 12.92 ns    (43.1 %), step = 600 ps          (2 %)
    tran: time = 14.6 ns     (48.7 %), step = 471.4 ps     (1.57 %)
    tran: time = 16.31 ns    (54.4 %), step = 587.1 ps     (1.96 %)
    tran: time = 17.51 ns    (58.4 %), step = 600 ps          (2 %)
    tran: time = 19.31 ns    (64.4 %), step = 600 ps          (2 %)
    tran: time = 20.27 ns    (67.6 %), step = 35.55 ps     (118 m%)
    tran: time = 22.33 ns    (74.4 %), step = 600 ps          (2 %)
    tran: time = 23.53 ns    (78.4 %), step = 600 ps          (2 %)
    tran: time = 25.07 ns    (83.6 %), step = 470.1 ps     (1.57 %)
    tran: time = 26.31 ns    (87.7 %), step = 587.9 ps     (1.96 %)
    tran: time = 28.11 ns    (93.7 %), step = 600 ps          (2 %)
    tran: time = 29.31 ns    (97.7 %), step = 600 ps          (2 %)
Number of accepted tran steps =             156

Notice from spectre during transient analysis `tran'.
    Trapezoidal ringing is detected during tran analysis.
        Please use method=trap for better results and performance.


Maximum value achieved for any signal of each quantity: 
V: V(vdd!) = 1.2 V
I: I(INPUT_SIGNAL:p) = 2.657 uA
If your circuit contains signals of the same quantity that are vastly different in size (such as high voltage circuitry combined with low voltage control circuitry), you should consider specifying global option `bin_relref=yes'.

~~~~~~~~~~~~~~~~~~~~~~~~~~~~~~~~~
Post-Transient Simulation Summary
~~~~~~~~~~~~~~~~~~~~~~~~~~~~~~~~~
   -   To further speed up simulation, consider
          add ++aps on command line
~~~~~~~~~~~~~~~~~~~~~~~~~~~~~~~~~


During simulation, the CPU load for active processors is :
        Spectre  0 (6.1 %)       1 (12.9 %)      2 (3.1 %)       3 (6.2 %)
                 5 (12.1 %)      6 (3.1 %)       7 (9.4 %)       8 (6.5 %)
                10 (6.2 %)      11 (21.2 %)     12 (3.1 %)      13 (15.2 %)
                15 (3.2 %)      16 (9.1 %)      18 (3.1 %)      20 (3.2 %)
                21 (40.0 %)     22 (6.1 %)      23 (15.6 %)     24 (3.1 %)
                25 (15.6 %)     26 (9.4 %)      29 (3.1 %)      30 (3.1 %)
        Other   
Initial condition solution time: CPU = 1.915 ms, elapsed = 1.92308 ms.
Intrinsic tran analysis time:    CPU = 20.014 ms, elapsed = 41.41 ms.
Total time required for tran analysis `tran': CPU = 28.424 ms, elapsed = 60.0531 ms.
Time accumulated: CPU = 244.013 ms, elapsed = 463.337 ms.
Peak resident memory used = 70.7 Mbytes.


Notice from spectre.
    14 notices suppressed.

finalTimeOP: writing operating point information to rawfile.

Opening the PSF file ../psf/finalTimeOP.info ...
modelParameter: writing model parameter values to rawfile.

Opening the PSF file ../psf/modelParameter.info ...
element: writing instance parameter values to rawfile.

Opening the PSF file ../psf/element.info ...
outputParameter: writing output parameter values to rawfile.

Opening the PSF file ../psf/outputParameter.info ...
designParamVals: writing netlist parameters to rawfile.

Opening the PSFASCII file ../psf/designParamVals.info ...
primitives: writing primitives to rawfile.

Opening the PSFASCII file ../psf/primitives.info.primitives ...
subckts: writing subcircuits to rawfile.

Opening the PSFASCII file ../psf/subckts.info.subckts ...

************************************************
Transient Analysis `tran': time = (0 s -> 30 ns)
************************************************
DC simulation time: CPU = 344 us, elapsed = 345.945 us.

Opening the PSFXL file ../psf/tran.tran.tran ...
Important parameter values:
    start = 0 s
    outputstart = 0 s
    stop = 30 ns
    step = 30 ps
    maxstep = 600 ps
    ic = all
    useprevic = no
    skipdc = no
    reltol = 1e-03
    abstol(V) = 1 uV
    abstol(I) = 1 pA
    temp = 27 C
    tnom = 27 C
    tempeffects = all
    errpreset = moderate
    method = traponly
    lteratio = 3.5
    relref = sigglobal
    cmin = 0 F
    gmin = 1 pS


Output and IC/nodeset summary:
                 save   2       (current)
                 save   3       (voltage)

    tran: time = 769.1 ps    (2.56 %), step = 159 ps       (530 m%)
    tran: time = 2.281 ns     (7.6 %), step = 600 ps          (2 %)

Notice from spectre at time = 2.88098 ns during transient analysis `tran'.
    Found trapezoidal ringing on node INPUT_SIGNAL:p.
Notice from spectre at time = 3.48098 ns during transient analysis `tran'.
    Found trapezoidal ringing on node INPUT_SIGNAL:p.
Notice from spectre at time = 4.08098 ns during transient analysis `tran'.
    Found trapezoidal ringing on node INPUT_SIGNAL:p.

    tran: time = 4.081 ns    (13.6 %), step = 600 ps          (2 %)

Notice from spectre at time = 4.57382 ns during transient analysis `tran'.
    Found trapezoidal ringing on node INPUT_SIGNAL:p.
Notice from spectre at time = 5.06667 ns during transient analysis `tran'.
    Found trapezoidal ringing on node INPUT_SIGNAL:p.
        Further occurrences of this notice will be suppressed.

    tran: time = 5.28 ns     (17.6 %), step = 71.71 ps     (239 m%)
    tran: time = 6.884 ns    (22.9 %), step = 600 ps          (2 %)
    tran: time = 8.684 ns    (28.9 %), step = 600 ps          (2 %)
    tran: time = 10 ns       (33.3 %), step = 358.2 ps     (1.19 %)
    tran: time = 11.72 ns    (39.1 %), step = 600 ps          (2 %)
    tran: time = 12.92 ns    (43.1 %), step = 600 ps          (2 %)
    tran: time = 14.6 ns     (48.7 %), step = 471.4 ps     (1.57 %)
    tran: time = 16.31 ns    (54.4 %), step = 587.1 ps     (1.96 %)
    tran: time = 17.51 ns    (58.4 %), step = 600 ps          (2 %)
    tran: time = 19.31 ns    (64.4 %), step = 600 ps          (2 %)
    tran: time = 20.27 ns    (67.6 %), step = 35.55 ps     (118 m%)
    tran: time = 22.33 ns    (74.4 %), step = 600 ps          (2 %)
    tran: time = 23.53 ns    (78.4 %), step = 600 ps          (2 %)
    tran: time = 25.07 ns    (83.6 %), step = 470.1 ps     (1.57 %)
    tran: time = 26.31 ns    (87.7 %), step = 587.9 ps     (1.96 %)
    tran: time = 28.11 ns    (93.7 %), step = 600 ps          (2 %)
    tran: time = 29.31 ns    (97.7 %), step = 600 ps          (2 %)
Number of accepted tran steps =             156

Notice from spectre during transient analysis `tran'.
    Trapezoidal ringing is detected during tran analysis.
        Please use method=trap for better results and performance.


Maximum value achieved for any signal of each quantity: 
V: V(vdd!) = 1.2 V
I: I(INPUT_SIGNAL:p) = 2.657 uA
If your circuit contains signals of the same quantity that are vastly different in size (such as high voltage circuitry combined with low voltage control circuitry), you should consider specifying global option `bin_relref=yes'.

~~~~~~~~~~~~~~~~~~~~~~~~~~~~~~~~~
Post-Transient Simulation Summary
~~~~~~~~~~~~~~~~~~~~~~~~~~~~~~~~~
   -   To further speed up simulation, consider
          add ++aps on command line
~~~~~~~~~~~~~~~~~~~~~~~~~~~~~~~~~


During simulation, the CPU load for active processors is :
        Spectre  0 (8.2 %)       1 (11.3 %)      2 (11.0 %)      3 (10.3 %)
                 4 (10.5 %)      5 (9.6 %)       6 (9.1 %)       7 (10.2 %)
                 8 (8.9 %)       9 (9.2 %)      10 (8.5 %)      11 (8.4 %)
                12 (8.7 %)      13 (9.0 %)      14 (8.4 %)      15 (8.3 %)
                16 (8.7 %)      17 (9.9 %)      18 (8.2 %)      19 (8.2 %)
                20 (8.4 %)      21 (15.1 %)     22 (7.7 %)      23 (7.8 %)
                24 (8.0 %)      25 (8.9 %)      26 (8.6 %)      27 (8.4 %)
                28 (8.5 %)      29 (7.4 %)      30 (8.8 %)      31 (9.8 %)
        Other   
Initial condition solution time: CPU = 441 us, elapsed = 445.843 us.
Intrinsic tran analysis time:    CPU = 17.59 ms, elapsed = 35.363 ms.
Total time required for tran analysis `tran': CPU = 21.23 ms, elapsed = 46.8631 ms.
Time accumulated: CPU = 319.509 ms, elapsed = 395.976 s (6m  36.0s).
Peak resident memory used = 71.9 Mbytes.


Notice from spectre.
    14 notices suppressed.

finalTimeOP: writing operating point information to rawfile.

Opening the PSF file ../psf/finalTimeOP.info ...
modelParameter: writing model parameter values to rawfile.

Opening the PSF file ../psf/modelParameter.info ...
element: writing instance parameter values to rawfile.

Opening the PSF file ../psf/element.info ...
outputParameter: writing output parameter values to rawfile.

Opening the PSF file ../psf/outputParameter.info ...
designParamVals: writing netlist parameters to rawfile.

Opening the PSFASCII file ../psf/designParamVals.info ...
primitives: writing primitives to rawfile.

Opening the PSFASCII file ../psf/primitives.info.primitives ...
subckts: writing subcircuits to rawfile.

Opening the PSFASCII file ../psf/subckts.info.subckts ...
