
Spectre (R) Circuit Simulator
Version 18.1.0.464.isr11 64bit -- 21 Sep 2019
Copyright (C) 1989-2019 Cadence Design Systems, Inc. All rights reserved worldwide. Cadence and Spectre are registered trademarks of Cadence Design Systems, Inc. All others are the property of their respective holders.

Includes RSA BSAFE(R) Cryptographic or Security Protocol Software from RSA Security, Inc.

User: sai9   Host: mo.ece.pdx.edu   HostID: DA0A14CF   PID: 10797
Memory  available: 15.0756 GB  physical: 89.5774 GB
Linux   : CentOS Linux release 7.9.2009 (Core)
CPU Type: Intel Xeon E312xx (Sandy Bridge, IBRS update)
All processors running at 2600.0 MHz
        Socket: Processors
        0:       0
        1:       1
        2:       2
        3:       3
        4:       4
        5:       5
        6:       6
        7:       7
        8:       8
        9:       9
        10:     10
        11:     11
        12:     12
        13:     13
        14:     14
        15:     15
        16:     16
        17:     17
        18:     18
        19:     19
        20:     20
        21:     21
        22:     22
        23:     23
        24:     24
        25:     25
        26:     26
        27:     27
        28:     28
        29:     29
        30:     30
        31:     31
        
System load averages (1min, 5min, 15min) : 0.4 %, 0.7 %, 1.2 %


Simulating `input.scs' on mo.ece.pdx.edu at 8:29:53 PM, Sat Oct 22, 2022 (process id: 10797).
Current working directory: /u/sai9/simulation/inverter_1_1_tb/spectre/schematic/netlist
Command line:
    /pkgs/cadence/2019-03/SPECTRE181/tools.lnx86/bin/spectre -64  \
        input.scs +escchars +log ../psf/spectre.out +inter=mpsc  \
        +mpssession=spectre1_26594_5 -format psfxl -raw ../psf  \
        -I/u/sai9/FreePDK45/ncsu_basekit/cdssetup/cadence525/inverter_1  \
        +lqtimeout 900 -maxw 5 -maxn 5 -env ade
spectre pid = 10797

Loading /pkgs/cadence/2019-03/SPECTRE181/tools.lnx86/cmi/lib/64bit/5.0/libinfineon_sh.so ...
Loading /pkgs/cadence/2019-03/SPECTRE181/tools.lnx86/cmi/lib/64bit/5.0/libphilips_o_sh.so ...
Loading /pkgs/cadence/2019-03/SPECTRE181/tools.lnx86/cmi/lib/64bit/5.0/libphilips_sh.so ...
Loading /pkgs/cadence/2019-03/SPECTRE181/tools.lnx86/cmi/lib/64bit/5.0/libsparam_sh.so ...
Loading /pkgs/cadence/2019-03/SPECTRE181/tools.lnx86/cmi/lib/64bit/5.0/libstmodels_sh.so ...
Reading file:  /u/sai9/simulation/inverter_1_1_tb/spectre/schematic/netlist/input.scs
Reading file:  /pkgs/cadence/2019-03/SPECTRE181/tools.lnx86/spectre/etc/configs/spectre.cfg
Reading file:  /u/sai9/FreePDK45/osu_soc/lib/files/gpdk45nm.m
Time for NDB Parsing: CPU = 97.723 ms, elapsed = 268.866 ms.
Time accumulated: CPU = 161.767 ms, elapsed = 268.874 ms.
Peak resident memory used = 57.9 Mbytes.


Warning from spectre in `inverter_1_1':`I5', during hierarchy flattening.
    WARNING (SFE-102): "input.scs" 14: Parameter `ld', specified for model `NMOS_VTL' of primitive `bsim4', has been ignored because it is an invalid model parameter. Specify a valid model parameter and rerun the simulation. Type `spectre -h bsim4' to get more information on valid model parameters.
    WARNING (SFE-102): "input.scs" 16: Parameter `ld', specified for model `NMOS_VTL' of primitive `bsim4', has been ignored because it is an invalid model parameter. Specify a valid model parameter and rerun the simulation. Type `spectre -h bsim4' to get more information on valid model parameters.

Time for Elaboration: CPU = 29.338 ms, elapsed = 34.071 ms.
Time accumulated: CPU = 191.301 ms, elapsed = 303.14 ms.
Peak resident memory used = 65.5 Mbytes.


Warning from spectre during hierarchy flattening.
    WARNING (SPECTRE-17101): The value 'psf' specified using the 'checklimitdest' option will no longer be supported in future releases.


Time for EDB Visiting: CPU = 1.884 ms, elapsed = 1.88398 ms.
Time accumulated: CPU = 193.488 ms, elapsed = 305.326 ms.
Peak resident memory used = 66.3 Mbytes.


Global user options:
         psfversion = 1.1.0
            vabstol = 1e-06
            iabstol = 1e-12
               temp = 27
               gmin = 1e-12
             rforce = 1
           maxnotes = 5
           maxwarns = 5
             digits = 5
               cols = 80
             pivrel = 0.001
           sensfile = ../psf/sens.output
     checklimitdest = psf
               save = allpub
             reltol = 0.001
               tnom = 27
             scalem = 1
              scale = 1

Scoped user options:

Circuit inventory:
              nodes 3
              bsim4 2     
          capacitor 1     
            vsource 2     

Analysis and control statement inventory:
               info 7     
               tran 1     

Output statements:
             .probe 0     
           .measure 0     
               save 0     

Time for parsing: CPU = 5.927 ms, elapsed = 10.7241 ms.
Time accumulated: CPU = 199.711 ms, elapsed = 316.345 ms.
Peak resident memory used = 67.9 Mbytes.

~~~~~~~~~~~~~~~~~~~~~~
Pre-Simulation Summary
~~~~~~~~~~~~~~~~~~~~~~
~~~~~~~~~~~~~~~~~~~~~~
Entering remote command mode using MPSC service (spectre, ipi, v0.0, spectre1_26594_5, ).

************************************************
Transient Analysis `tran': time = (0 s -> 30 ns)
************************************************
DC simulation time: CPU = 1.127 ms, elapsed = 1.13106 ms.

Opening the PSFXL file ../psf/tran.tran.tran ...
Important parameter values:
    start = 0 s
    outputstart = 0 s
    stop = 30 ns
    step = 30 ps
    maxstep = 600 ps
    ic = all
    useprevic = no
    skipdc = no
    reltol = 1e-03
    abstol(V) = 1 uV
    abstol(I) = 1 pA
    temp = 27 C
    tnom = 27 C
    tempeffects = all
    errpreset = moderate
    method = traponly
    lteratio = 3.5
    relref = sigglobal
    cmin = 0 F
    gmin = 1 pS


Output and IC/nodeset summary:
                 save   2       (current)
                 save   3       (voltage)


Notice from spectre at time = 921.782 ps during transient analysis `tran'.
    Found trapezoidal ringing on node V0:p.

    tran: time = 921.8 ps    (3.07 %), step = 255.9 ps     (853 m%)

Notice from spectre at time = 1.43359 ns during transient analysis `tran'.
    Found trapezoidal ringing on node V0:p.
Notice from spectre at time = 2.03359 ns during transient analysis `tran'.
    Found trapezoidal ringing on node V0:p.
Notice from spectre at time = 2.63359 ns during transient analysis `tran'.
    Found trapezoidal ringing on node V0:p.

    tran: time = 2.634 ns    (8.78 %), step = 600 ps          (2 %)

Notice from spectre at time = 3.23359 ns during transient analysis `tran'.
    Found trapezoidal ringing on node V0:p.
        Further occurrences of this notice will be suppressed.

    tran: time = 3.834 ns    (12.8 %), step = 600 ps          (2 %)
    tran: time = 5.337 ns    (17.8 %), step = 117.4 ps     (391 m%)
    tran: time = 7.113 ns    (23.7 %), step = 472.4 ps     (1.57 %)
    tran: time = 8.279 ns    (27.6 %), step = 600 ps          (2 %)
    tran: time = 10 ns       (33.3 %), step = 520.5 ps     (1.74 %)
    tran: time = 11.67 ns    (38.9 %), step = 600 ps          (2 %)
    tran: time = 12.87 ns    (42.9 %), step = 600 ps          (2 %)
    tran: time = 14.56 ns    (48.5 %), step = 491.9 ps     (1.64 %)
    tran: time = 15.8 ns     (52.7 %), step = 302.7 ps     (1.01 %)
    tran: time = 17.53 ns    (58.4 %), step = 541.6 ps     (1.81 %)
    tran: time = 19.33 ns    (64.4 %), step = 600 ps          (2 %)
    tran: time = 20.29 ns    (67.6 %), step = 39.42 ps     (131 m%)
    tran: time = 22.21 ns      (74 %), step = 600 ps          (2 %)
    tran: time = 23.41 ns      (78 %), step = 600 ps          (2 %)
    tran: time = 25.05 ns    (83.5 %), step = 438.9 ps     (1.46 %)
    tran: time = 26.54 ns    (88.5 %), step = 391.9 ps     (1.31 %)
    tran: time = 28.13 ns    (93.8 %), step = 600 ps          (2 %)
    tran: time = 29.33 ns    (97.8 %), step = 600 ps          (2 %)
Number of accepted tran steps =             155

Notice from spectre during transient analysis `tran'.
    Trapezoidal ringing is detected during tran analysis.
        Please use method=trap for better results and performance.


Maximum value achieved for any signal of each quantity: 
V: V(I5.pull_up:int_g) = 1.2 V
I: I(V0:p) = 7.063 uA
If your circuit contains signals of the same quantity that are vastly different in size (such as high voltage circuitry combined with low voltage control circuitry), you should consider specifying global option `bin_relref=yes'.

~~~~~~~~~~~~~~~~~~~~~~~~~~~~~~~~~
Post-Transient Simulation Summary
~~~~~~~~~~~~~~~~~~~~~~~~~~~~~~~~~
   -   To further speed up simulation, consider
          add ++aps on command line
~~~~~~~~~~~~~~~~~~~~~~~~~~~~~~~~~


During simulation, the CPU load for active processors is :
        Spectre  2 (3.2 %)       3 (6.1 %)       4 (5.9 %)       6 (9.1 %)
                12 (2.9 %)      18 (5.9 %)      21 (40.6 %)     22 (27.3 %)
                24 (9.1 %)      29 (6.2 %)      30 (6.5 %)      31 (9.1 %)
        Other   
Initial condition solution time: CPU = 1.283 ms, elapsed = 1.28913 ms.
Intrinsic tran analysis time:    CPU = 19.474 ms, elapsed = 38.949 ms.
Total time required for tran analysis `tran': CPU = 25.867 ms, elapsed = 60.9958 ms.
Time accumulated: CPU = 236.531 ms, elapsed = 463.87 ms.
Peak resident memory used = 70.7 Mbytes.


Notice from spectre.
    18 notices suppressed.

finalTimeOP: writing operating point information to rawfile.

Opening the PSF file ../psf/finalTimeOP.info ...
modelParameter: writing model parameter values to rawfile.

Opening the PSF file ../psf/modelParameter.info ...
element: writing instance parameter values to rawfile.

Opening the PSF file ../psf/element.info ...
outputParameter: writing output parameter values to rawfile.

Opening the PSF file ../psf/outputParameter.info ...
designParamVals: writing netlist parameters to rawfile.

Opening the PSFASCII file ../psf/designParamVals.info ...
primitives: writing primitives to rawfile.

Opening the PSFASCII file ../psf/primitives.info.primitives ...
subckts: writing subcircuits to rawfile.

Opening the PSFASCII file ../psf/subckts.info.subckts ...
